%int=./gauss_scratch/RibuprofenAniAg2_RDFTVDZaug_3_3.int
%rwf=./gauss_scratch/RibuprofenAniAg2_RDFTVDZaug_3_3.rwf
%d2e=./gauss_scratch/RibuprofenAniAg2_RDFTVDZaug_3_3.d2e
%nosave
%chk=./Gaussian/RibuprofenAniAg2_RDFTVDZaug_3_3.chk
%nproc=8
%Mem=4GB
#p B3LYP/Gen Opt=Redundant Pseudo=Read SCF(QC,MaxCyc=250) 6D

 R-Ibuprofen Anion/aug-cc-pVDZ no solvent Ag2/LANL2DZ geometry opt, 2nd Ring setting

-1 1
O         -5.02351       -0.84994        0.86064
O         -4.85768       -1.59793       -1.28234
C         -4.42949       -1.31359       -0.14159
C         -2.85967       -1.57591        0.06756
H         -2.53566       -2.19037       -0.78243
C         -2.15214       -0.25431       -0.00926
C         -2.26384        0.71006        1.01642
C         -1.71595        1.98214        0.87542
C         -1.01351        2.36948       -0.28208
C         -0.88473        1.42088       -1.30067
C         -1.43472        0.12559       -1.16884
C         -0.45246        3.76905       -0.41358
C          0.80376        4.06034        0.44070
C          1.11920        5.56156        0.43179
C          2.01547        3.24189       -0.01722
C         -2.60746       -2.33625        1.37647
H         -2.85225        0.46575        1.89776
H         -1.85738        2.70905        1.67843
H         -0.37695        1.68962       -2.22848
H         -1.43499       -0.54811       -2.02802
H         -0.21050        3.96821       -1.47009
H         -1.23443        4.49205       -0.13106
H          0.57117        3.76932        1.47802
H          1.33491        5.90962       -0.59070
H          0.27302        6.15068        0.81437
H          1.99831        5.78717        1.05294
H          1.81550        2.16346        0.01134
H          2.88625        3.43619        0.62535
H          2.29474        3.50613       -1.04937
H         -3.09758       -3.31907        1.33424
H         -3.03844       -1.79465        2.22691
H         -1.53110       -2.49415        1.55254
Ag        -1.74369        4.91089       -3.88074
Ag        -2.09027        2.79367       -2.34643

C H O 0
aug-cc-pVDZ
****
Ag 0
LANL2DZ
****

Ag 0
LANL2DZ



